** written by FreeCAD inp file writer for CalculiX,Abaqus meshes
** highest dimension mesh elements only.

** Nodes
*Node, NSET=Nall
1, 0, 7391.4, -1200
2, 0, 7391.4, 614.4
3, 0, 7620, 614.4
4, 0, 7620, -1200
5, 300, 7391.4, -1200
6, 300, 7391.4, 614.4
7, 228.6, 7391.4, 614.4
8, 0, 7391.4, 914.4
9, 0, 7620, 914.4
10, 300, 7620, -1200
11, 300, 7620, 614.4
12, 228.6, 7620, 614.4
13, 0, 3347.8, 614.4
14, 228.6, 3347.8, 614.4
15, 2080, 7391.4, 614.4
16, 2380, 7391.4, 614.4
17, 4800.6, 7391.4, 614.4
18, 4800.6, 7391.4, 914.4
19, 4800.6, 7391.4, 989.4
20, 2380, 7391.4, 989.4
** ... 80412 like lines cut


** Volume elements
*Element, TYPE=C3D10, ELSET=Evolumes
33444, 7213, 5224, 44547, 44548, 42601, 55585, 44619, 44618, 55586, 44598
33445, 54477, 10348, 10347, 53882, 55588, 10358, 55587, 55589, 53924, 53923
33446, 54477, 9507, 9508, 53498, 55591, 9518, 55590, 55592, 53541, 53540
33447, 54483, 10345, 10344, 53887, 55594, 10355, 55593, 55595, 53909, 53908
33448, 53502, 9505, 9504, 54483, 53525, 9515, 53526, 55597, 55596, 55598
33449, 54900, 10701, 10667, 10668, 55599, 55066, 54985, 54986, 55069, 10685
33450, 10769, 55192, 10736, 10737, 55600, 55278, 55345, 55348, 55277, 10754
33451, 10566, 55192, 10539, 10567, 55238, 55601, 54558, 10584, 55239, 54562
33452, 6832, 380, 41920, 55525, 6834, 41925, 41928, 55603, 55602, 55604
33453, 6802, 46376, 46375, 55527, 46380, 46388, 46378, 55606, 55605, 55607
33454, 10310, 10283, 54900, 10311, 53632, 55608, 54947, 10328, 53628, 54946
33455, 54482, 10346, 10345, 53888, 55610, 10356, 55609, 55611, 53914, 53913
33456, 54482, 9505, 9506, 53503, 55613, 9516, 55612, 55614, 53531, 53530
33457, 7941, 46363, 6787, 55506, 46367, 46368, 46373, 55616, 55615, 55617
33458, 49803, 9433, 49802, 9573, 49810, 49811, 49812, 55619, 55618, 55620
33459, 7941, 6787, 46364, 55506, 46373, 46371, 46372, 55616, 55617, 55621
33460, 17977, 2606, 13265, 12627, 17981, 55622, 55623, 55625, 55624, 55626
33461, 42483, 9268, 51967, 51964, 55628, 51979, 55627, 55629, 51999, 51992
33462, 9875, 9878, 53956, 48975, 55631, 53958, 55630, 55633, 55632, 55634
33463, 273, 42483, 9268, 51967, 42488, 55628, 55635, 55636, 55627, 51979
** ... 38648 like lines cut

** Define element set Eall
*ELSET, ELSET=Eall
Evolumes



***********************************************************
** Element sets for materials and FEM element type (solid, shell, beam, fluid)
*ELSET,ELSET=MechanicalMaterialSolid
Evolumes

***********************************************************
** constraints fixed node sets
** Fixed_Base_C1_C8_Pedestals
*NSET,NSET=ConstraintFixed_Pedestals
1,
4,
5,
10,
43,
44,
68,
78,
80,
81,
82,
83,
84,
89,
137,
138,
149,
150,
213,
218,
** ... 244 like lines cut

** Physical constants for SI(mm) unit system with Kelvins
*PHYSICAL CONSTANTS, ABSOLUTE ZERO=0, STEFAN BOLTZMANN=5.670374419e-11

***********************************************************
** Materials
** see information about units at file end
** FreeCAD material name: Concrete-M25
** M25_Concrete_IS456
*MATERIAL, NAME=MechanicalMaterial
*ELASTIC
25000,0.18
*DENSITY
2.5E-09
*EXPANSION, ZERO=0
0

***********************************************************
** Sections
*SOLID SECTION, ELSET=MechanicalMaterialSolid, MATERIAL=MechanicalMaterial

***********************************************************
** At least one step is needed to run an CalculiX analysis of FreeCAD
*STEP, INC=2000
*STATIC
1.0,1.0,1e-05,1.0

***********************************************************
** Fixed Constraints
** Fixed_Base_C1_C8_Pedestals
*BOUNDARY
ConstraintFixed_Pedestals,1
ConstraintFixed_Pedestals,2
ConstraintFixed_Pedestals,3


***********************************************************
** Self weight Constraint
** IS875_Self_Weight_Gravity
*DLOAD
Eall,GRAV,9810,0,0,-1


***********************************************************
** constraints force node loads
** OHT_Gravity_Force_11kN
*CLOAD
** node loads on shape: RCC_Structural_Frame_Fused:Face493
606,3,-0
607,3,-0
626,3,-0
627,3,-0
10300,3,-0
10301,3,-0
10302,3,-0
10303,3,-0
10304,3,-0
10305,3,-0
10306,3,-0
10307,3,-0
10308,3,-0
10309,3,-0
10310,3,-0
10311,3,-0
10312,3,-0
10313,3,-0
10314,3,-0
10315,3,-0
** ... 161 like lines cut

** node loads on shape: RCC_Structural_Frame_Fused:Face501
619,3,-0
620,3,-0
635,3,-0
636,3,-0
10556,3,-0
10557,3,-0
10558,3,-0
10559,3,-0
10560,3,-0
10561,3,-0
10562,3,-0
10563,3,-0
10564,3,-0
10565,3,-0
10566,3,-0
10567,3,-0
10568,3,-0
10569,3,-0
10570,3,-0
10571,3,-0
** ... 161 like lines cut



***********************************************************
** constraints pressure element face loads
** Live_Load_FF_Slab_2.0kN_m2
*DLOAD
** RCC_Structural_Frame_Fused.Face114
38477,P3,0.002
38853,P3,0.002
40136,P4,0.002
40614,P4,0.002
41086,P1,0.002
41123,P4,0.002
43553,P3,0.002
44553,P2,0.002
44887,P3,0.002
45326,P4,0.002
45508,P3,0.002
45736,P1,0.002
46025,P3,0.002
46460,P2,0.002
46915,P3,0.002
46960,P4,0.002
47079,P1,0.002
47289,P1,0.002
47506,P2,0.002
47516,P4,0.002
** ... 2720 like lines cut
** Live_Load_GF_Plinth_2.0kN_m2
*DLOAD
** RCC_Structural_Frame_Fused.Face19
40163,P1,0.002
40240,P1,0.002
40254,P1,0.002
40494,P4,0.002
40631,P3,0.002
40654,P3,0.002
40750,P4,0.002
40852,P3,0.002
40884,P4,0.002
41188,P4,0.002
41339,P4,0.002
41383,P2,0.002
42725,P4,0.002
43221,P1,0.002
43616,P1,0.002
43686,P1,0.002
43690,P3,0.002
43960,P1,0.002
44226,P1,0.002
44672,P4,0.002
** ... 67 like lines cut
** RCC_Structural_Frame_Fused.Face21
65745,P3,0.002
66991,P3,0.002
69336,P2,0.002
70043,P1,0.002
** RCC_Structural_Frame_Fused.Face26
39660,P1,0.002
40882,P2,0.002
40883,P4,0.002
40903,P1,0.002
40905,P1,0.002
40910,P1,0.002
40911,P4,0.002
40919,P4,0.002
40927,P1,0.002
40934,P2,0.002
40937,P2,0.002
40942,P1,0.002
40947,P1,0.002
40949,P1,0.002
40958,P3,0.002
40959,P2,0.002
40968,P3,0.002
40971,P1,0.002
40977,P3,0.002
40978,P1,0.002
** ... 62 like lines cut
** RCC_Structural_Frame_Fused.Face41
41302,P3,0.002
41305,P2,0.002
41320,P4,0.002
41343,P2,0.002
41406,P1,0.002
41410,P3,0.002
42014,P2,0.002
42058,P1,0.002
42135,P1,0.002
42143,P2,0.002
42194,P1,0.002
42238,P2,0.002
42259,P1,0.002
42585,P1,0.002
42687,P4,0.002
42707,P1,0.002
42769,P1,0.002
42844,P1,0.002
42857,P1,0.002
43054,P1,0.002
** ... 65 like lines cut
** RCC_Structural_Frame_Fused.Face64
49323,P3,0.002
49324,P2,0.002
68516,P3,0.002
70387,P3,0.002
70399,P3,0.002
71074,P3,0.002
71182,P3,0.002
71266,P2,0.002
** RCC_Structural_Frame_Fused.Face74
42269,P3,0.002
42278,P1,0.002
42284,P2,0.002
42288,P2,0.002
42317,P4,0.002
42325,P1,0.002
42335,P2,0.002
42336,P2,0.002
42339,P3,0.002
42344,P2,0.002
42359,P3,0.002
42365,P1,0.002
42366,P3,0.002
42370,P3,0.002
42377,P3,0.002
42379,P4,0.002
42382,P2,0.002
42431,P1,0.002
42440,P4,0.002
42441,P3,0.002
** ... 70 like lines cut
** RCC_Structural_Frame_Fused.Face77
40301,P1,0.002
40306,P1,0.002
40309,P1,0.002
40331,P2,0.002
40332,P2,0.002
40334,P2,0.002
40337,P4,0.002
40341,P3,0.002
40347,P4,0.002
40348,P4,0.002
40354,P3,0.002
40372,P2,0.002
40387,P3,0.002
40390,P1,0.002
40393,P4,0.002
40414,P1,0.002
40416,P2,0.002
40427,P1,0.002
40428,P4,0.002
40437,P1,0.002
** ... 38 like lines cut
** RCC_Structural_Frame_Fused.Face96
39841,P1,0.002
39846,P1,0.002
42820,P1,0.002
42821,P1,0.002
42826,P1,0.002
42828,P1,0.002
45278,P3,0.002
46302,P1,0.002
50855,P2,0.002
50857,P4,0.002
50860,P3,0.002
50862,P4,0.002
52742,P4,0.002
53543,P1,0.002
56564,P1,0.002
56577,P1,0.002
56579,P1,0.002
56582,P1,0.002
57364,P1,0.002
57367,P1,0.002
** ... 6 like lines cut
** RCC_Structural_Frame_Fused.Face129
39875,P1,0.002
39876,P1,0.002
39878,P1,0.002
39879,P1,0.002
48390,P2,0.002
49608,P3,0.002
49613,P3,0.002
50092,P3,0.002
52693,P1,0.002
59681,P3,0.002
64653,P1,0.002
65055,P4,0.002
66140,P1,0.002
69638,P1,0.002
71428,P4,0.002
71505,P4,0.002
** RCC_Structural_Frame_Fused.Face184
39997,P3,0.002
40014,P2,0.002
40033,P2,0.002
40059,P4,0.002
40099,P4,0.002
40128,P3,0.002
41288,P3,0.002
41294,P4,0.002
42891,P4,0.002
42895,P4,0.002
47262,P3,0.002
47265,P2,0.002
47606,P3,0.002
47608,P4,0.002
50820,P4,0.002
50821,P2,0.002
52760,P2,0.002
54076,P2,0.002
54133,P2,0.002
54134,P3,0.002
** ... 14 like lines cut
** RCC_Structural_Frame_Fused.Face186
34865,P1,0.002
40485,P4,0.002
42140,P1,0.002
42596,P1,0.002
43306,P1,0.002
43423,P3,0.002
43683,P1,0.002
43979,P1,0.002
43986,P1,0.002
44018,P3,0.002
44227,P1,0.002
44333,P2,0.002
44613,P3,0.002
44755,P2,0.002
44908,P1,0.002
45285,P4,0.002
45790,P1,0.002
46129,P1,0.002
46183,P2,0.002
46220,P1,0.002
** ... 81 like lines cut
** RCC_Structural_Frame_Fused.Face250
39844,P3,0.002
39851,P4,0.002
42818,P2,0.002
42819,P3,0.002
42822,P3,0.002
42825,P3,0.002
45281,P2,0.002
47246,P2,0.002
50854,P4,0.002
50856,P1,0.002
50863,P1,0.002
50865,P4,0.002
52743,P2,0.002
54841,P2,0.002
56554,P3,0.002
56561,P3,0.002
56565,P4,0.002
56566,P4,0.002
57365,P3,0.002
57366,P2,0.002
** ... 6 like lines cut
** RCC_Structural_Frame_Fused.Face260
35070,P1,0.002
35072,P1,0.002
39877,P1,0.002
39881,P1,0.002
45793,P2,0.002
46838,P1,0.002
48335,P1,0.002
49559,P1,0.002
49615,P3,0.002
50093,P1,0.002
50408,P1,0.002
52692,P1,0.002
53500,P1,0.002
65056,P1,0.002
71313,P4,0.002
71506,P4,0.002
** RCC_Structural_Frame_Fused.Face262
36668,P1,0.002
36675,P3,0.002
36677,P3,0.002
36678,P2,0.002
36679,P2,0.002
36684,P3,0.002
37666,P3,0.002
38388,P1,0.002
38391,P3,0.002
44113,P3,0.002
45094,P4,0.002
48192,P1,0.002
48450,P1,0.002
48933,P3,0.002
49951,P4,0.002
50433,P2,0.002
50794,P2,0.002
51045,P1,0.002
51046,P1,0.002
51488,P4,0.002
** ... 14 like lines cut
** RCC_Structural_Frame_Fused.Face264
39993,P1,0.002
40023,P3,0.002
40029,P1,0.002
40030,P3,0.002
40073,P2,0.002
40112,P4,0.002
41283,P3,0.002
41286,P1,0.002
42884,P3,0.002
42889,P1,0.002
45425,P1,0.002
47258,P1,0.002
47609,P2,0.002
47610,P1,0.002
48379,P3,0.002
48380,P1,0.002
50824,P1,0.002
50827,P1,0.002
54129,P3,0.002
54135,P1,0.002
** ... 14 like lines cut
** RCC_Structural_Frame_Fused.Face315
39989,P1,0.002
39991,P1,0.002
40028,P3,0.002
40068,P1,0.002
40093,P4,0.002
40114,P4,0.002
41287,P1,0.002
41296,P1,0.002
42887,P4,0.002
42888,P1,0.002
47259,P1,0.002
47266,P1,0.002
47604,P1,0.002
47611,P1,0.002
50823,P3,0.002
50825,P1,0.002
52468,P1,0.002
52758,P1,0.002
54136,P1,0.002
54137,P1,0.002
** ... 14 like lines cut
** RCC_Structural_Frame_Fused.Face316
36300,P1,0.002
36301,P2,0.002
49328,P2,0.002
49330,P1,0.002
50660,P1,0.002
53673,P1,0.002
53970,P1,0.002
59053,P1,0.002
** RCC_Structural_Frame_Fused.Face367
33510,P1,0.002
33511,P1,0.002
33512,P1,0.002
33513,P1,0.002
34831,P1,0.002
34832,P1,0.002
47794,P3,0.002
48480,P2,0.002
48482,P4,0.002
49614,P3,0.002
49616,P2,0.002
50088,P1,0.002
50089,P1,0.002
50090,P1,0.002
57906,P2,0.002
65054,P4,0.002
** RCC_Structural_Frame_Fused.Face408
40184,P1,0.002
40186,P2,0.002
40187,P4,0.002
41418,P1,0.002
44372,P3,0.002
44378,P3,0.002
44379,P2,0.002
49601,P4,0.002
53468,P1,0.002
53470,P1,0.002
53826,P3,0.002
53827,P3,0.002
53829,P4,0.002
55171,P4,0.002
56661,P4,0.002
57748,P4,0.002
57900,P1,0.002
58445,P3,0.002
58446,P2,0.002
69991,P3,0.002
69992,P4,0.002
70849,P2,0.002
** RCC_Structural_Frame_Fused.Face427
38925,P4,0.002
38992,P3,0.002
38996,P4,0.002
39000,P3,0.002
39072,P4,0.002
39822,P1,0.002
40748,P4,0.002
40749,P3,0.002
44826,P1,0.002
45272,P1,0.002
45416,P4,0.002
45417,P2,0.002
54520,P2,0.002
54521,P2,0.002
55041,P3,0.002
55208,P3,0.002
55209,P2,0.002
55212,P1,0.002
55216,P1,0.002
55331,P4,0.002
** ... 10 like lines cut
** RCC_Structural_Frame_Fused.Face431
39577,P2,0.002
39580,P1,0.002
39601,P1,0.002
39606,P3,0.002
39609,P3,0.002
39615,P3,0.002
39619,P3,0.002
39624,P3,0.002
39641,P4,0.002
39642,P3,0.002
41098,P1,0.002
41100,P1,0.002
41101,P4,0.002
41103,P3,0.002
47180,P1,0.002
47182,P1,0.002
47239,P1,0.002
47240,P1,0.002
47241,P1,0.002
47242,P1,0.002
** ... 22 like lines cut
** Live_Load_Terrace_Slab_1.5kN_m2
*DLOAD
** RCC_Structural_Frame_Fused.Face208
36958,P4,0.0015
36992,P1,0.0015
38187,P1,0.0015
38189,P3,0.0015
39649,P3,0.0015
39972,P3,0.0015
40463,P1,0.0015
40788,P3,0.0015
41264,P1,0.0015
42070,P4,0.0015
42650,P1,0.0015
43047,P2,0.0015
43067,P3,0.0015
43241,P1,0.0015
43627,P2,0.0015
44834,P3,0.0015
44870,P3,0.0015
44971,P3,0.0015
45491,P3,0.0015
45706,P3,0.0015
** ... 2783 like lines cut

***********************************************************
** Outputs --> frd file
*NODE FILE
U
*EL FILE
S, E
** outputs --> dat file
** reaction forces for Constraint fixed
*NODE PRINT, NSET=ConstraintFixed_Pedestals, TOTALS=ONLY
RF

*OUTPUT, FREQUENCY=1
***********************************************************
*END STEP

***********************************************************
** CalculiX Input file
**   written by    --> FreeCAD 1.1.3
**   written on    --> Sun Sep 13 13:14:32 2026
**   file name     --> HomeConstruction.FCStd
**   analysis name --> FemAnalysis
**
**
***********************************************************
**  About units:
**  See ccx manual, ccx does not know about any unit.
**  Golden rule: The user must make sure that the numbers they provide have consistent units.
**  The user is the FreeCAD calculix writer module ;-)
**
**  The unit system which is used at Guido Dhondt's company: mm, N, s, K
**  Since Length and Mass are connected by Force, if Length is mm the Mass is in t to get N
**  The following units are used to write to inp file:
**
**  Length: mm (this includes the mesh geometry)
**  Mass: t
**  TimeSpan: s
**  Temperature: K
**
**  This leads to:
**  Force: N
**  Pressure: N/mm^2 == MPa (Young's Modulus has unit Pressure)
**  Density: t/mm^3
**  Gravity: mm/s^2
**  Thermal conductivity: t*mm/K/s^3 == as W/m/K == kW/mm/K
**  Specific Heat: mm^2/s^2/K = J/kg/K == kJ/t/K
**
