** written by FreeCAD inp file writer for CalculiX,Abaqus meshes
** highest dimension mesh elements only.

** Nodes
*Node, NSET=Nall
1, 3829.2, 6419.8, -1200
2, 3829.2, 6419.8, -1600
3, 3829.2, 7619.8, -1200
4, 3829.2, 7619.8, -1600
5, 5029.2, 6419.8, -1600
6, 5029.2, 6419.8, -1200
7, 4800.6, 7619.8, -1200
8, 4800.6, 7320, -1200
9, 5029.2, 7320, -1200
10, 5029.2, 7619.8, -1600
11, 5029.2, 7619.8, -1200
12, 4800.6, 7320, 614.4
13, 4800.6, 7391.4, 614.4
14, 4800.6, 7620, 614.4
15, 4800.6, 7620, -1200
16, 5029.2, 7320, 614.4
17, 5029.2, 7620, -1200
18, 5029.2, 7391.4, 614.4
19, 5029.2, 7620, 614.4
20, 4800.6, 4686.3, 914.4
** ... 88323 like lines cut


** Volume elements
*Element, TYPE=C3D10, ELSET=Evolumes
36065, 15622, 21495, 15385, 21496, 60386, 60384, 60385, 60387, 21523, 60388
36066, 7629, 7644, 39136, 60232, 60390, 39145, 60389, 60392, 60391, 60393
36067, 59210, 11047, 59209, 11284, 59220, 59218, 59223, 60395, 60394, 60396
36068, 60301, 11704, 11451, 60328, 60399, 60397, 60398, 60401, 60400, 60402
36069, 60301, 11451, 11382, 60302, 60398, 60403, 60404, 60406, 60405, 60407
36070, 22174, 16079, 60263, 60363, 60410, 60408, 60409, 60412, 60411, 60413
36071, 60241, 53499, 60183, 60266, 60416, 60414, 60415, 60418, 60417, 60419
36072, 59087, 58209, 58208, 58197, 60421, 58218, 60420, 60423, 60422, 60424
36073, 22127, 16095, 16068, 60360, 60426, 16268, 60425, 60428, 60427, 60429
36074, 24316, 15060, 60270, 60340, 60432, 60430, 60431, 60434, 60433, 60435
36075, 60183, 53499, 60240, 60266, 60414, 60436, 60437, 60419, 60417, 60438
36076, 11706, 11444, 60268, 60339, 60441, 60439, 60440, 60443, 60442, 60444
36077, 21145, 1394, 1965, 60378, 60447, 60445, 60446, 60449, 60448, 60450
36078, 15060, 15045, 60270, 60340, 15197, 60451, 60430, 60433, 60452, 60435
36079, 60268, 11444, 11429, 60339, 60439, 11581, 60453, 60444, 60442, 60454
36080, 21447, 21494, 21547, 21497, 60457, 60455, 60456, 60458, 21524, 60459
36081, 60158, 24067, 33730, 60236, 60462, 60460, 60461, 60464, 60463, 60465
36082, 60159, 15369, 21556, 60234, 60468, 60466, 60467, 60470, 60469, 60471
36083, 139, 191, 22532, 60212, 3771, 22535, 22534, 60473, 60472, 60474
36084, 749, 746, 11890, 60382, 60477, 60475, 60476, 60479, 60478, 60480
** ... 42775 like lines cut

** Define element set Eall
*ELSET, ELSET=Eall
Evolumes



***********************************************************
** Element sets for materials and FEM element type (solid, shell, beam, fluid)
*ELSET,ELSET=MechanicalMaterialSolid
Evolumes

***********************************************************
** constraints fixed node sets
** Fixed_Base_8_Footing_Pads
*NSET,NSET=ConstraintFixed_Footings
2,
4,
5,
10,
124,
125,
141,
142,
170,
171,
172,
173,
176,
177,
178,
179,
245,
246,
247,
248,
** ... 2095 like lines cut

** Physical constants for SI(mm) unit system with Kelvins
*PHYSICAL CONSTANTS, ABSOLUTE ZERO=0, STEFAN BOLTZMANN=5.670374419e-11

***********************************************************
** Materials
** see information about units at file end
** FreeCAD material name: Concrete-M25
** M25_Concrete_IS456
*MATERIAL, NAME=MechanicalMaterial
*ELASTIC
25000,0.18
*DENSITY
2.5E-09
*EXPANSION, ZERO=0
0

***********************************************************
** Sections
*SOLID SECTION, ELSET=MechanicalMaterialSolid, MATERIAL=MechanicalMaterial

***********************************************************
** At least one step is needed to run an CalculiX analysis of FreeCAD
*STEP, INC=2000
*STATIC
1.0,1.0,1e-05,1.0

***********************************************************
** Fixed Constraints
** Fixed_Base_8_Footing_Pads
*BOUNDARY
ConstraintFixed_Footings,1
ConstraintFixed_Footings,2
ConstraintFixed_Footings,3


***********************************************************
** Self weight Constraint
** IS875_Self_Weight_Gravity
*DLOAD
Eall,GRAV,9810,0,0,-1


***********************************************************
** constraints force node loads
** OHT_Gravity_Force_11kN
*CLOAD
** node loads on shape: RCC_Structural_Frame_Fused:Face533
666,3,-0
667,3,-0
676,3,-0
677,3,-0
11100,3,-0
11101,3,-0
11102,3,-0
11103,3,-0
11104,3,-0
11105,3,-0
11106,3,-0
11107,3,-0
11108,3,-0
11109,3,-0
11110,3,-0
11111,3,-38.19444444444
11112,3,-38.19444444444
11113,3,-38.19444444444
11114,3,-38.19444444444
11115,3,-38.19444444444
** ... 109 like lines cut

** node loads on shape: RCC_Structural_Frame_Fused:Face538
668,3,-0
669,3,-0
681,3,-0
682,3,-0
11171,3,-0
11172,3,-0
11173,3,-0
11174,3,-0
11175,3,-0
11176,3,-0
11177,3,-0
11178,3,-0
11179,3,-0
11180,3,-0
11181,3,-0
11182,3,-38.19444444444
11183,3,-38.19444444444
11184,3,-38.19444444444
11185,3,-38.19444444444
11186,3,-38.19444444444
** ... 109 like lines cut



***********************************************************
** constraints pressure element face loads
** Live_Load_FF_Slab_2.0kN_m2
*DLOAD
** RCC_Structural_Frame_Fused.Face177
42929,P3,0.002
44233,P2,0.002
45327,P4,0.002
48393,P4,0.002
49108,P1,0.002
49713,P1,0.002
49933,P4,0.002
50584,P1,0.002
50938,P2,0.002
51476,P3,0.002
51555,P3,0.002
51598,P2,0.002
51814,P3,0.002
52094,P3,0.002
52287,P4,0.002
52817,P4,0.002
52868,P1,0.002
52897,P1,0.002
52969,P4,0.002
53010,P2,0.002
** ... 2678 like lines cut
** Live_Load_GF_Plinth_2.0kN_m2
*DLOAD
** RCC_Structural_Frame_Fused.Face17
42226,P2,0.002
45477,P4,0.002
47735,P2,0.002
48189,P3,0.002
49376,P1,0.002
49709,P2,0.002
49906,P4,0.002
49971,P3,0.002
50464,P4,0.002
50668,P4,0.002
50825,P3,0.002
51545,P4,0.002
52032,P2,0.002
52035,P2,0.002
53123,P1,0.002
55143,P3,0.002
55291,P2,0.002
55399,P2,0.002
55466,P1,0.002
55847,P1,0.002
** ... 50 like lines cut
** RCC_Structural_Frame_Fused.Face35
44473,P4,0.002
44474,P4,0.002
44480,P1,0.002
44486,P2,0.002
44487,P3,0.002
44488,P3,0.002
44492,P1,0.002
44497,P3,0.002
44498,P3,0.002
44504,P1,0.002
44520,P4,0.002
44522,P4,0.002
44525,P4,0.002
44531,P3,0.002
44535,P2,0.002
44542,P1,0.002
44581,P1,0.002
44583,P1,0.002
44589,P2,0.002
44605,P4,0.002
** ... 38 like lines cut
** RCC_Structural_Frame_Fused.Face41
44256,P4,0.002
44289,P4,0.002
44419,P1,0.002
44685,P4,0.002
44821,P4,0.002
44966,P3,0.002
44997,P3,0.002
45018,P2,0.002
45077,P1,0.002
45432,P4,0.002
45628,P3,0.002
47532,P1,0.002
47987,P4,0.002
48234,P1,0.002
48244,P1,0.002
48442,P4,0.002
48473,P2,0.002
48671,P3,0.002
48839,P3,0.002
49413,P1,0.002
** ... 67 like lines cut
** RCC_Structural_Frame_Fused.Face45
72280,P4,0.002
73530,P3,0.002
75885,P2,0.002
76590,P1,0.002
** RCC_Structural_Frame_Fused.Face86
45139,P3,0.002
45144,P2,0.002
45154,P2,0.002
45165,P3,0.002
45176,P3,0.002
45182,P4,0.002
45191,P3,0.002
45205,P4,0.002
45214,P3,0.002
45215,P2,0.002
45217,P1,0.002
45219,P1,0.002
45229,P2,0.002
45233,P1,0.002
45237,P1,0.002
45246,P1,0.002
45253,P2,0.002
45256,P4,0.002
45261,P3,0.002
45262,P2,0.002
** ... 62 like lines cut
** RCC_Structural_Frame_Fused.Face101
46693,P1,0.002
46695,P1,0.002
46712,P1,0.002
46718,P4,0.002
46740,P3,0.002
46741,P2,0.002
46742,P4,0.002
46748,P2,0.002
46751,P1,0.002
46754,P3,0.002
46774,P2,0.002
46779,P1,0.002
46782,P4,0.002
46786,P2,0.002
46800,P1,0.002
46803,P3,0.002
46805,P1,0.002
46812,P2,0.002
46818,P1,0.002
46824,P3,0.002
** ... 70 like lines cut
** RCC_Structural_Frame_Fused.Face106
43947,P1,0.002
43948,P3,0.002
47261,P4,0.002
47262,P3,0.002
47263,P2,0.002
47266,P2,0.002
50065,P2,0.002
52477,P1,0.002
57019,P3,0.002
57020,P2,0.002
57025,P1,0.002
57028,P1,0.002
59059,P2,0.002
61343,P4,0.002
63022,P1,0.002
63027,P1,0.002
63036,P4,0.002
63037,P2,0.002
63791,P3,0.002
63793,P4,0.002
** ... 6 like lines cut
** RCC_Structural_Frame_Fused.Face142
38609,P1,0.002
43725,P1,0.002
43726,P1,0.002
43727,P1,0.002
50651,P2,0.002
51993,P1,0.002
53282,P2,0.002
53832,P1,0.002
55494,P3,0.002
56752,P1,0.002
59867,P3,0.002
60613,P1,0.002
60614,P1,0.002
64706,P2,0.002
78139,P4,0.002
78282,P2,0.002
** RCC_Structural_Frame_Fused.Face160
43943,P3,0.002
43959,P4,0.002
47264,P2,0.002
47268,P4,0.002
47270,P1,0.002
47271,P4,0.002
50066,P2,0.002
52479,P3,0.002
57018,P3,0.002
57021,P4,0.002
57026,P3,0.002
57029,P3,0.002
59058,P1,0.002
59921,P1,0.002
63032,P2,0.002
63033,P3,0.002
63045,P2,0.002
63046,P3,0.002
63790,P1,0.002
63792,P2,0.002
** ... 6 like lines cut
** RCC_Structural_Frame_Fused.Face171
38551,P1,0.002
44670,P2,0.002
46574,P3,0.002
47026,P1,0.002
47637,P1,0.002
47948,P4,0.002
48229,P1,0.002
48583,P4,0.002
48592,P4,0.002
48632,P4,0.002
48842,P1,0.002
48988,P2,0.002
49335,P3,0.002
49513,P3,0.002
49699,P3,0.002
50072,P3,0.002
50648,P1,0.002
51078,P1,0.002
51152,P2,0.002
51196,P1,0.002
** ... 81 like lines cut
** RCC_Structural_Frame_Fused.Face172
42634,P3,0.002
42635,P3,0.002
42678,P4,0.002
42679,P1,0.002
43129,P1,0.002
43130,P1,0.002
46552,P2,0.002
46553,P3,0.002
49325,P1,0.002
49326,P1,0.002
52797,P1,0.002
52798,P1,0.002
53381,P1,0.002
53382,P1,0.002
55509,P4,0.002
55513,P1,0.002
60509,P4,0.002
60510,P4,0.002
60543,P4,0.002
60544,P1,0.002
** ... 14 like lines cut
** RCC_Structural_Frame_Fused.Face198
38117,P1,0.002
38118,P1,0.002
42781,P1,0.002
42783,P1,0.002
51977,P4,0.002
53866,P2,0.002
54766,P1,0.002
55492,P4,0.002
56108,P1,0.002
66159,P3,0.002
71575,P1,0.002
72031,P1,0.002
72063,P1,0.002
76005,P1,0.002
78227,P4,0.002
78232,P4,0.002
** RCC_Structural_Frame_Fused.Face204
40558,P2,0.002
40559,P1,0.002
40563,P3,0.002
40569,P2,0.002
40570,P1,0.002
40571,P3,0.002
41845,P3,0.002
42400,P4,0.002
48732,P2,0.002
49883,P3,0.002
53617,P1,0.002
53936,P1,0.002
54548,P4,0.002
55954,P4,0.002
56537,P2,0.002
56963,P3,0.002
57219,P1,0.002
57220,P1,0.002
57738,P1,0.002
57739,P3,0.002
** ... 14 like lines cut
** RCC_Structural_Frame_Fused.Face206
44146,P2,0.002
44159,P2,0.002
44168,P4,0.002
44169,P1,0.002
44186,P4,0.002
44225,P3,0.002
45541,P4,0.002
45542,P4,0.002
47348,P4,0.002
47349,P4,0.002
50228,P1,0.002
52491,P2,0.002
52950,P2,0.002
52951,P3,0.002
53851,P2,0.002
53852,P1,0.002
56978,P4,0.002
56984,P2,0.002
60586,P2,0.002
60589,P2,0.002
** ... 14 like lines cut
** RCC_Structural_Frame_Fused.Face260
44144,P1,0.002
44152,P2,0.002
44162,P1,0.002
44182,P3,0.002
44188,P4,0.002
44189,P4,0.002
45544,P3,0.002
45548,P4,0.002
47352,P3,0.002
47353,P2,0.002
52493,P1,0.002
52496,P1,0.002
52953,P4,0.002
52954,P3,0.002
56981,P3,0.002
56983,P1,0.002
59074,P1,0.002
60521,P1,0.002
60588,P4,0.002
60590,P2,0.002
** ... 14 like lines cut
** RCC_Structural_Frame_Fused.Face270
46456,P1,0.002
46457,P1,0.002
50553,P3,0.002
50554,P4,0.002
51422,P1,0.002
53976,P1,0.002
54886,P1,0.002
55722,P1,0.002
57770,P1,0.002
57789,P1,0.002
58062,P1,0.002
63620,P1,0.002
64360,P1,0.002
74946,P2,0.002
76538,P4,0.002
78340,P2,0.002
** RCC_Structural_Frame_Fused.Face346
43672,P3,0.002
43674,P2,0.002
43677,P3,0.002
43678,P4,0.002
43682,P3,0.002
43689,P3,0.002
43695,P3,0.002
43698,P1,0.002
43703,P2,0.002
43705,P1,0.002
45350,P1,0.002
45351,P1,0.002
45352,P1,0.002
45356,P1,0.002
52400,P1,0.002
52401,P1,0.002
52467,P3,0.002
52470,P4,0.002
52471,P4,0.002
52473,P4,0.002
** ... 22 like lines cut
** RCC_Structural_Frame_Fused.Face347
44323,P1,0.002
44324,P3,0.002
44326,P3,0.002
44328,P1,0.002
49025,P1,0.002
49026,P4,0.002
49031,P3,0.002
49032,P4,0.002
59838,P1,0.002
59842,P1,0.002
60238,P2,0.002
60240,P2,0.002
60241,P3,0.002
60242,P3,0.002
61134,P4,0.002
61257,P2,0.002
61258,P2,0.002
64198,P3,0.002
64357,P1,0.002
64906,P1,0.002
76144,P4,0.002
76532,P1,0.002
** RCC_Structural_Frame_Fused.Face420
43080,P2,0.002
43085,P4,0.002
43162,P2,0.002
43163,P3,0.002
43927,P1,0.002
43928,P1,0.002
44964,P4,0.002
44965,P4,0.002
49605,P3,0.002
49606,P3,0.002
50220,P1,0.002
50221,P1,0.002
61024,P2,0.002
61025,P3,0.002
61704,P2,0.002
61706,P3,0.002
61707,P4,0.002
61710,P1,0.002
61830,P3,0.002
61831,P3,0.002
** ... 10 like lines cut
** Live_Load_Terrace_Slab_1.5kN_m2
*DLOAD
** RCC_Structural_Frame_Fused.Face400
36885,P4,0.0015
41780,P3,0.0015
41808,P1,0.0015
43061,P2,0.0015
44078,P3,0.0015
44973,P3,0.0015
47499,P3,0.0015
47565,P4,0.0015
47696,P1,0.0015
47756,P2,0.0015
48179,P4,0.0015
49639,P1,0.0015
49759,P2,0.0015
49908,P1,0.0015
50216,P4,0.0015
50283,P2,0.0015
50505,P3,0.0015
50542,P3,0.0015
50572,P1,0.0015
50862,P4,0.0015
** ... 2734 like lines cut

***********************************************************
** Outputs --> frd file
*NODE FILE
U
*EL FILE
S, E
** outputs --> dat file
** reaction forces for Constraint fixed
*NODE PRINT, NSET=ConstraintFixed_Footings, TOTALS=ONLY
RF

*OUTPUT, FREQUENCY=1
***********************************************************
*END STEP

***********************************************************
** CalculiX Input file
**   written by    --> FreeCAD 1.1.3
**   written on    --> Sun Sep 13 17:47:53 2026
**   file name     --> HomeConstruction.FCStd
**   analysis name --> FemAnalysis
**
**
***********************************************************
**  About units:
**  See ccx manual, ccx does not know about any unit.
**  Golden rule: The user must make sure that the numbers they provide have consistent units.
**  The user is the FreeCAD calculix writer module ;-)
**
**  The unit system which is used at Guido Dhondt's company: mm, N, s, K
**  Since Length and Mass are connected by Force, if Length is mm the Mass is in t to get N
**  The following units are used to write to inp file:
**
**  Length: mm (this includes the mesh geometry)
**  Mass: t
**  TimeSpan: s
**  Temperature: K
**
**  This leads to:
**  Force: N
**  Pressure: N/mm^2 == MPa (Young's Modulus has unit Pressure)
**  Density: t/mm^3
**  Gravity: mm/s^2
**  Thermal conductivity: t*mm/K/s^3 == as W/m/K == kW/mm/K
**  Specific Heat: mm^2/s^2/K = J/kg/K == kJ/t/K
**
